powerflow/34Bus/ieee34Mod1ee.dss
! Standard (Mod 1) model of IEEE 34 Bus Test Feeder

! Note: Mod 2 better accounts for distributed load.

Clear

New object=circuit.ieee34-1
~ basekv=69 pu=1.05 angle=30 mvasc3=200000  !stiffen up a bit over DSS default

! Substation Transformer  -- Modification: Make source very stiff by defining a tiny leakage Z
New Transformer.SubXF Phases=3 Windings=2 Xhl=0.01    ! normally 8
~ wdg=1 bus=sourcebus conn=Delta kv=69    kva=25000   %r=0.0005   !reduce %r, too
~ wdg=2 bus=800       conn=wye   kv=24.9  kva=25000   %r=0.0005

! import line codes with phase impedance matrices
Redirect        IEEELineCodes.dss   ! revised according to Later test feeder doc

! Lines
New Line.L1     Phases=3 Bus1=800.1.2.3  Bus2=802.1.2.3  LineCode=300  Length=2.58   units=kft
New Line.L2     Phases=3 Bus1=802.1.2.3  Bus2=806.1.2.3  LineCode=300  Length=1.73   units=kft
New Line.L3     Phases=3 Bus1=806.1.2.3  Bus2=808.1.2.3  LineCode=300  Length=32.23   units=kft
New Line.L4     Phases=1 Bus1=808.2      Bus2=810.2      LineCode=303  Length=5.804   units=kft
New Line.L5     Phases=3 Bus1=808.1.2.3  Bus2=812.1.2.3  LineCode=300  Length=37.5   units=kft
New Line.L6     Phases=3 Bus1=812.1.2.3  Bus2=814.1.2.3  LineCode=300  Length=29.73   units=kft
New Line.L7     Phases=3 Bus1=814r.1.2.3 Bus2=850.1.2.3  LineCode=301  Length=0.01   units=kft
New Line.L8     Phases=1 Bus1=816.1      Bus2=818.1      LineCode=302  Length=1.71   units=kft
New Line.L9     Phases=3 Bus1=816.1.2.3  Bus2=824.1.2.3  LineCode=301  Length=10.21   units=kft
New Line.L10    Phases=1 Bus1=818.1      Bus2=820.1      LineCode=302  Length=48.15   units=kft
New Line.L11    Phases=1 Bus1=820.1      Bus2=822.1      LineCode=302  Length=13.74   units=kft
New Line.L12    Phases=1 Bus1=824.2      Bus2=826.2      LineCode=303  Length=3.03   units=kft
New Line.L13    Phases=3 Bus1=824.1.2.3  Bus2=828.1.2.3  LineCode=301  Length=0.84   units=kft
New Line.L14    Phases=3 Bus1=828.1.2.3  Bus2=830.1.2.3  LineCode=301  Length=20.44   units=kft
New Line.L15    Phases=3 Bus1=830.1.2.3  Bus2=854.1.2.3  LineCode=301  Length=0.52   units=kft
New Line.L16    Phases=3 Bus1=832.1.2.3  Bus2=858.1.2.3  LineCode=301  Length=4.9   units=kft
New Line.L17    Phases=3 Bus1=834.1.2.3  Bus2=860.1.2.3  LineCode=301  Length=2.02   units=kft
New Line.L18    Phases=3 Bus1=834.1.2.3  Bus2=842.1.2.3  LineCode=301  Length=0.28   units=kft
New Line.L19    Phases=3 Bus1=836.1.2.3  Bus2=840.1.2.3  LineCode=301  Length=0.86   units=kft
New Line.L20    Phases=3 Bus1=836.1.2.3  Bus2=862.1.2.3  LineCode=301  Length=0.28   units=kft
New Line.L21    Phases=3 Bus1=842.1.2.3  Bus2=844.1.2.3  LineCode=301  Length=1.35   units=kft
New Line.L22    Phases=3 Bus1=844.1.2.3  Bus2=846.1.2.3  LineCode=301  Length=3.64   units=kft
New Line.L23    Phases=3 Bus1=846.1.2.3  Bus2=848.1.2.3  LineCode=301  Length=0.53   units=kft
New Line.L24    Phases=3 Bus1=850.1.2.3  Bus2=816.1.2.3  LineCode=301  Length=0.31   units=kft
New Line.L25    Phases=3 Bus1=852r.1.2.3 Bus2=832.1.2.3  LineCode=301  Length=0.01   units=kft

! 24.9/4.16 kV  Transformer
New Transformer.XFM1  Phases=3 Windings=2 Xhl=4.08
~ wdg=1 bus=832       conn=wye   kv=24.9  kva=500    %r=0.95
~ wdg=2 bus=888       conn=Wye   kv=4.16  kva=500    %r=0.95

New Line.L26    Phases=1 Bus1=854.2      Bus2=856.2      LineCode=303  Length=23.33   units=kft
New Line.L27    Phases=3 Bus1=854.1.2.3  Bus2=852.1.2.3  LineCode=301  Length=36.83   units=kft
! 9-17-10 858-864 changed to phase A per error report
New Line.L28    Phases=1 Bus1=858.1      Bus2=864.1      LineCode=303  Length=1.62   units=kft
New Line.L29    Phases=3 Bus1=858.1.2.3  Bus2=834.1.2.3  LineCode=301  Length=5.83   units=kft
New Line.L30    Phases=3 Bus1=860.1.2.3  Bus2=836.1.2.3  LineCode=301  Length=2.68   units=kft
New Line.L31    Phases=1 Bus1=862.2      Bus2=838.2      LineCode=304  Length=4.86   units=kft
New Line.L32    Phases=3 Bus1=888.1.2.3  Bus2=890.1.2.3  LineCode=300  Length=10.56   units=kft

! Capacitors
! New Capacitor.C844      Bus1=844        Phases=3        kVAR=300        kV=24.9
! New Capacitor.C848      Bus1=848        Phases=3        kVAR=450        kV=24.9

! Regulators - three independent phases
! Regulator 1
new transformer.reg1a phases=1 windings=2 buses=(814.1 814r.1) conns='wye wye' kvs="14.376 14.376" kvas="20000 20000" XHL=1
new regcontrol.creg1a transformer=reg1a winding=2 vreg=122 band=2 ptratio=120 ctprim=100 R=2.7 X=1.6
new transformer.reg1b phases=1 windings=2 buses=(814.2 814r.2) conns='wye wye' kvs="14.376 14.376" kvas="20000 20000" XHL=1
new regcontrol.creg1b transformer=reg1b winding=2 vreg=122 band=2 ptratio=120 ctprim=100 R=2.7 X=1.6
new transformer.reg1c phases=1 windings=2 buses=(814.3 814r.3) conns='wye wye' kvs="14.376 14.376" kvas="20000 20000" XHL=1
new regcontrol.creg1c transformer=reg1c winding=2 vreg=122 band=2 ptratio=120 ctprim=100 R=2.7 X=1.6

! Regulator 2
new transformer.reg2a phases=1 windings=2 buses=(852.1 852r.1) conns='wye wye' kvs="14.376 14.376" kvas="20000 20000" XHL=1
new regcontrol.creg2a transformer=reg2a winding=2 vreg=124 band=2 ptratio=120 ctprim=100 R=2.5 X=1.5
new transformer.reg2b phases=1 windings=2 buses=(852.2 852r.2) conns='wye wye' kvs="14.376 14.376" kvas="20000 20000" XHL=1
new regcontrol.creg2b transformer=reg2b winding=2 vreg=124 band=2 ptratio=120 ctprim=100 R=2.5 X=1.5
new transformer.reg2c phases=1 windings=2 buses=(852.3 852r.3) conns='wye wye' kvs="14.376 14.376" kvas="20000 20000" XHL=1
new regcontrol.creg2c transformer=reg2c winding=2 vreg=124 band=2 ptratio=120 ctprim=100 R=2.5 X=1.5

! spot loads
New Load.802a  Bus1= 802.1  Phases=1 Conn=Wye Model=1 kW=0 kvar=0 kV=24.9
New Load.802b  Bus1= 802.2  Phases=1 Conn=Wye Model=1 kW=0 kvar=0 kV=24.9
New Load.802c  Bus1= 802.3  Phases=1 Conn=Wye Model=1 kW=0 kvar=0 kV=24.9
New Load.806a  Bus1= 806.1  Phases=1 Conn=Wye Model=1 kW=0 kvar=0 kV=24.9
New Load.806b  Bus1= 806.2  Phases=1 Conn=Wye Model=1 kW=0 kvar=0 kV=24.9
New Load.806c  Bus1= 806.3  Phases=1 Conn=Wye Model=1 kW=0 kvar=0 kV=24.9
New Load.808a  Bus1= 808.1  Phases=1 Conn=Wye Model=1 kW=0 kvar=0 kV=24.9
New Load.808b  Bus1= 808.2  Phases=1 Conn=Wye Model=1 kW=0 kvar=0 kV=24.9
New Load.808c  Bus1= 808.3  Phases=1 Conn=Wye Model=1 kW=0 kvar=0 kV=24.9
New Load.810b  Bus1= 810.2  Phases=1 Conn=Wye Model=1 kW=0 kvar=0 kV=24.9
New Load.812a  Bus1= 812.1  Phases=1 Conn=Wye Model=1 kW=0 kvar=0 kV=24.9
New Load.812b  Bus1= 812.2  Phases=1 Conn=Wye Model=1 kW=0 kvar=0 kV=24.9
New Load.812c  Bus1= 812.3  Phases=1 Conn=Wye Model=1 kW=0 kvar=0 kV=24.9
New Load.814a  Bus1= 814.1  Phases=1 Conn=Wye Model=1 kW=0 kvar=0 kV=24.9
New Load.814b  Bus1= 814.2  Phases=1 Conn=Wye Model=1 kW=0 kvar=0 kV=24.9
New Load.814c  Bus1= 814.3  Phases=1 Conn=Wye Model=1 kW=0 kvar=0 kV=24.9
New Load.850a  Bus1= 850.1  Phases=1 Conn=Wye Model=1 kW=0 kvar=0 kV=24.9
New Load.850b  Bus1= 850.2  Phases=1 Conn=Wye Model=1 kW=0 kvar=0 kV=24.9
New Load.850c  Bus1= 850.3  Phases=1 Conn=Wye Model=1 kW=0 kvar=0 kV=24.9
New Load.816a  Bus1= 816.1  Phases=1 Conn=Wye Model=1 kW=0 kvar=0 kV=24.9
New Load.818a  Bus1= 818.1  Phases=1 Conn=Wye Model=1 kW=0 kvar=0 kV=24.9
New Load.816b  Bus1= 816.2  Phases=1 Conn=Wye Model=1 kW=0 kvar=0 kV=24.9
New Load.816c  Bus1= 816.3  Phases=1 Conn=Wye Model=1 kW=0 kvar=0 kV=24.9
New Load.824a  Bus1= 824.1  Phases=1 Conn=Wye Model=1 kW=0 kvar=0 kV=24.9
New Load.824b  Bus1= 824.2  Phases=1 Conn=Wye Model=1 kW=0 kvar=0 kV=24.9
New Load.824c  Bus1= 824.3  Phases=1 Conn=Wye Model=1 kW=0 kvar=0 kV=24.9
New Load.820a  Bus1= 820.1  Phases=1 Conn=Wye Model=1 kW=0 kvar=0 kV=24.9
New Load.822a  Bus1= 822.1  Phases=1 Conn=Wye Model=1 kW=0 kvar=0 kV=24.9
New Load.826b  Bus1= 826.2  Phases=1 Conn=Wye Model=1 kW=0 kvar=0 kV=24.9
New Load.828a  Bus1= 828.1  Phases=1 Conn=Wye Model=1 kW=0 kvar=0 kV=24.9
New Load.828b  Bus1= 828.2  Phases=1 Conn=Wye Model=1 kW=0 kvar=0 kV=24.9
New Load.828c  Bus1= 828.3  Phases=1 Conn=Wye Model=1 kW=0 kvar=0 kV=24.9
New Load.830a  Bus1= 830.1  Phases=1 Conn=Wye Model=1 kW=0 kvar=0 kV=24.9
New Load.830b  Bus1= 830.2  Phases=1 Conn=Wye Model=1 kW=0 kvar=0 kV=24.9
New Load.830c  Bus1= 830.3  Phases=1 Conn=Wye Model=1 kW=0 kvar=0 kV=24.9
New Load.854a  Bus1= 854.1  Phases=1 Conn=Wye Model=1 kW=0 kvar=0 kV=24.9
New Load.854b  Bus1= 854.2  Phases=1 Conn=Wye Model=1 kW=0 kvar=0 kV=24.9
New Load.854c  Bus1= 854.3  Phases=1 Conn=Wye Model=1 kW=0 kvar=0 kV=24.9
New Load.832a  Bus1= 832.1  Phases=1 Conn=Wye Model=1 kW=0 kvar=0 kV=24.9
New Load.832b  Bus1= 832.2  Phases=1 Conn=Wye Model=1 kW=0 kvar=0 kV=24.9
New Load.832c  Bus1= 832.3  Phases=1 Conn=Wye Model=1 kW=0 kvar=0 kV=24.9
New Load.858a  Bus1= 858.1  Phases=1 Conn=Wye Model=1 kW=0 kvar=0 kV=24.9
New Load.858b  Bus1= 858.2  Phases=1 Conn=Wye Model=1 kW=0 kvar=0 kV=24.9
New Load.858c  Bus1= 858.3  Phases=1 Conn=Wye Model=1 kW=0 kvar=0 kV=24.9
New Load.834a  Bus1= 834.1  Phases=1 Conn=Wye Model=1 kW=0 kvar=0 kV=24.9
New Load.834b  Bus1= 834.2  Phases=1 Conn=Wye Model=1 kW=0 kvar=0 kV=24.9
New Load.834c  Bus1= 834.3  Phases=1 Conn=Wye Model=1 kW=0 kvar=0 kV=24.9
New Load.860a  Bus1= 860.1  Phases=1 Conn=Wye Model=1 kW=0 kvar=0 kV=24.9
New Load.860b  Bus1= 860.2  Phases=1 Conn=Wye Model=1 kW=0 kvar=0 kV=24.9
New Load.860c  Bus1= 860.3  Phases=1 Conn=Wye Model=1 kW=0 kvar=0 kV=24.9
New Load.842a  Bus1= 842.1  Phases=1 Conn=Wye Model=1 kW=0 kvar=0 kV=24.9
New Load.842b  Bus1= 842.2  Phases=1 Conn=Wye Model=1 kW=0 kvar=0 kV=24.9
New Load.842c  Bus1= 842.3  Phases=1 Conn=Wye Model=1 kW=0 kvar=0 kV=24.9
New Load.836a  Bus1= 836.1  Phases=1 Conn=Wye Model=1 kW=0 kvar=0 kV=24.9
New Load.836b  Bus1= 836.2  Phases=1 Conn=Wye Model=1 kW=0 kvar=0 kV=24.9
New Load.836c  Bus1= 836.3  Phases=1 Conn=Wye Model=1 kW=0 kvar=0 kV=24.9
New Load.840a  Bus1= 840.1  Phases=1 Conn=Wye Model=1 kW=0 kvar=0 kV=24.9
New Load.840b  Bus1= 840.2  Phases=1 Conn=Wye Model=1 kW=0 kvar=0 kV=24.9
New Load.840c  Bus1= 840.3  Phases=1 Conn=Wye Model=1 kW=0 kvar=0 kV=24.9
New Load.862a  Bus1= 862.1  Phases=1 Conn=Wye Model=1 kW=0 kvar=0 kV=24.9
New Load.862b  Bus1= 862.2  Phases=1 Conn=Wye Model=1 kW=0 kvar=0 kV=24.9
New Load.862c  Bus1= 862.3  Phases=1 Conn=Wye Model=1 kW=0 kvar=0 kV=24.9
New Load.844a  Bus1= 844.1  Phases=1 Conn=Wye Model=1 kW=0 kvar=0 kV=24.9
New Load.844b  Bus1= 844.2  Phases=1 Conn=Wye Model=1 kW=0 kvar=0 kV=24.9
New Load.844c  Bus1= 844.3  Phases=1 Conn=Wye Model=1 kW=0 kvar=0 kV=24.9
New Load.846a  Bus1= 846.1  Phases=1 Conn=Wye Model=1 kW=0 kvar=0 kV=24.9
New Load.846b  Bus1= 846.2  Phases=1 Conn=Wye Model=1 kW=0 kvar=0 kV=24.9
New Load.846c  Bus1= 846.3  Phases=1 Conn=Wye Model=1 kW=0 kvar=0 kV=24.9
New Load.848a  Bus1= 848.1  Phases=1 Conn=Wye Model=1 kW=0 kvar=0 kV=24.9
New Load.848b  Bus1= 848.2  Phases=1 Conn=Wye Model=1 kW=0 kvar=0 kV=24.9
New Load.848c  Bus1= 848.3  Phases=1 Conn=Wye Model=1 kW=0 kvar=0 kV=24.9
New Load.888a  Bus1= 888.1  Phases=1 Conn=Wye Model=1 kW=0 kvar=0 kV=4.160
New Load.888b  Bus1= 888.2  Phases=1 Conn=Wye Model=1 kW=0 kvar=0 kV=4.160
New Load.888c  Bus1= 888.3  Phases=1 Conn=Wye Model=1 kW=0 kvar=0 kV=4.160
New Load.856b  Bus1= 856.2  Phases=1 Conn=Wye Model=1 kW=0 kvar=0 kV=24.9
New Load.852a  Bus1= 852.1  Phases=1 Conn=Wye Model=1 kW=0 kvar=0 kV=24.9
New Load.852b  Bus1= 852.2  Phases=1 Conn=Wye Model=1 kW=0 kvar=0 kV=24.9
New Load.852c  Bus1= 852.3  Phases=1 Conn=Wye Model=1 kW=0 kvar=0 kV=24.9
New Load.864a  Bus1= 864.1  Phases=1 Conn=Wye Model=1 kW=0 kvar=0 kV=24.9
New Load.838b  Bus1= 838.2  Phases=1 Conn=Wye Model=1 kW=0 kvar=0 kV=24.9
New Load.890a  Bus1= 890.1  Phases=1 Conn=Wye Model=1 kW=0 kvar=0 kV=4.160
New Load.890b  Bus1= 890.2  Phases=1 Conn=Wye Model=1 kW=0 kvar=0 kV=4.160
New Load.890c  Bus1= 890.3  Phases=1 Conn=Wye Model=1 kW=0 kvar=0 kV=4.160

! Script to revise Vminpu property on all loads to allow voltage to sag to 85% without switching
! to constant Z model



! let the DSS estimate voltage bases automatically
Set VoltageBases = "69, 24.9, 4.16, .48"
calcv

Transformer.reg1a.wdg=2 Tap=(0.00625  12 * 1 +)    ! Tap 12
Transformer.reg1b.wdg=2 Tap=(0.00625  5  * 1 +)    ! Tap 5
Transformer.reg1c.wdg=2 Tap=(0.00625  5  * 1 +)    ! Tap 5
Transformer.reg2a.wdg=2 Tap=(0.00625  13 * 1 +)    ! Tap 13
Transformer.reg2b.wdg=2 Tap=(0.00625  11 * 1 +)    ! Tap 11
Transformer.reg2c.wdg=2 Tap=(0.00625  12 * 1 +)    ! Tap 12

Set Controlmode=OFF  ! prevents further tap changes

Solve

! show voltages LN Nodes
! show currents residual=y elements
! show powers kva element
! show taps